8

C          0.00000        0.00000        0.76510
H          0.00000       -1.02220        1.16660
H         -0.88530        0.51110        1.16660
H          0.88530        0.51110        1.16660
C          0.00000        0.00000       -0.76510
H          0.88530       -0.51110       -1.16660
H          0.00000        1.02220       -1.16660
H         -0.88530       -0.51110       -1.16660
